LAMMPS (12 Dec 2018)
Processor partition = 4
units         metal
atom_style    atomic
neighbor      1.0 bin
neigh_modify  every 1 delay 0 check yes

boundary        p p p
atom_modify map array sort 0 0.0
variable	u uloop 8

read_data   initial.lammps
  orthogonal box = (0 0 0) to (10.0025 12.3537 10.615)
  reading atoms ...
  127 atoms
pair_style  nnp3v
pair_coeff  * * lammps-force.nnp Li P O
Reading potential file lammps-force.nnp with DATE: 20201105
min_style   quickmin
minimize    1.0e-6 1.0e-4 1000 10000
  update every 1 steps, delay 0 steps, check yes
Step Temp E_pair E_mol TotEng Press
0            0   -796.68047            0   -796.68047     13401.66
Loop time of 2.26724 on 16 procs for 6 steps with 127 atoms

Minimization stats:
  Stopping criterion = energy tolerance
  Energy initial, next-to-last, final =
  Force two-norm initial, final = 0.292034 0.283352
  Force max component initial, final = 0.0445202 0.0435203
  Final line search alpha, max atom move = 0 0
  Iterations, force evaluations = 6 6

reset_timestep	0

#timestep   0.001
#velocity   all create 1000 87287

dump   1 all atom 1 dump.neb.$u
dump   1 all atom 1 dump.neb.5
fix    2 all neb 1.0 parallel neigh
dump   2 all atom 1 test.dump

thermo          1
neb 0.00000000001 0.0 10000 5000 1 final final.lammps
Step Temp E_pair E_mol TotEng Press
0            0   -793.25154            0   -793.25154    20554.724
Averages over the last 734 of 1467 rows, steps 733 to 1466:
Temp E_pair E_mol TotEng Press
3.05669e-07 -796.414 0 -796.414 13146.9
Loop time of 737.385 on 16 procs for 1466 steps with 127 atoms

Minimization stats:
  Stopping criterion = energy tolerance
  Energy initial, next-to-last, final =
  Force two-norm initial, final = 20.5244 5.44183e-06
  Force max component initial, final = 12.837 3.51593e-06
  Final line search alpha, max atom move = 0 0
  Iterations, force evaluations = 1466 1466

Step Temp E_pair E_mol TotEng Press
1466            0   -796.41456            0   -796.41456     13147.25
Loop time of 421.229 on 16 procs for 842 steps with 127 atoms

Minimization stats:
  Stopping criterion = energy tolerance
  Energy initial, next-to-last, final =
  Force two-norm initial, final = 5.44183e-06 3.96966e-05
  Force max component initial, final = 3.51593e-06 1.77115e-05
  Final line search alpha, max atom move = 0 0
  Iterations, force evaluations = 842 842
