LAMMPS (12 Dec 2018)
Processor partition = 5
units         metal
atom_style    atomic
neighbor      1.0 bin
neigh_modify  every 1 delay 0 check yes

boundary        p p p
atom_modify map array sort 0 0.0
variable	u uloop 8

read_data   initial.lammps
  orthogonal box = (0 0 0) to (10.0025 12.3537 10.615)
  reading atoms ...
  127 atoms
pair_style  hybrid/overlay nnp3v nnp3v_vf
pair_coeff  * * nnp3v lammps-force.nnp Li P O
Reading potential file lammps-force.nnp with DATE: 20201105
pair_coeff  * * nnp3v_vf lammps_rot.nnp Li P O
Reading potential file lammps_rot.nnp with DATE: 20211226
min_style   quickmin
minimize    1.0e-6 1.0e-4 1000 10000
  update every 1 steps, delay 0 steps, check yes
Step Temp E_pair E_mol TotEng Press
0            0   -796.79482            0   -796.79482    13324.103
Loop time of 14.4553 on 24 procs for 24 steps with 127 atoms

Minimization stats:
  Stopping criterion = energy tolerance
  Energy initial, next-to-last, final =
  Force two-norm initial, final = 1.98977 0.177561
  Force max component initial, final = 0.330078 0.036579
  Final line search alpha, max atom move = 0 0
  Iterations, force evaluations = 24 24

reset_timestep	0

#timestep   0.001
#velocity   all create 1000 87287

dump   1 all atom 1 dump.neb.$u
dump   1 all atom 1 dump.neb.6
fix    2 all neb 1.0 parallel neigh
dump   2 all atom 1 test.dump

thermo          1
neb 0.00000000001 0.0 10000 5000 1 final final.lammps
Step Temp E_pair E_mol TotEng Press
0            0   -795.01854            0   -795.01854    18345.765
Averages over the last 751 of 1501 rows, steps 750 to 1500:
Temp E_pair E_mol TotEng Press
5.34606e-08 -796.837 0 -796.837 14363.8
Loop time of 881.163 on 24 procs for 1500 steps with 127 atoms

Minimization stats:
  Stopping criterion = energy tolerance
  Energy initial, next-to-last, final =
  Force two-norm initial, final = 11.7202 2.53691e-06
  Force max component initial, final = 6.66972 1.48741e-06
  Final line search alpha, max atom move = 0 0
  Iterations, force evaluations = 1500 1500

Step Temp E_pair E_mol TotEng Press
1500            0   -796.83725            0   -796.83725    14363.885
Loop time of 427.117 on 24 procs for 727 steps with 127 atoms

Minimization stats:
  Stopping criterion = energy tolerance
  Energy initial, next-to-last, final =
  Force two-norm initial, final = 2.53691e-06 9.16004e-05
  Force max component initial, final = 1.48741e-06 5.95259e-05
  Final line search alpha, max atom move = 0 0
  Iterations, force evaluations = 727 727
