LAMMPS (12 Dec 2018)
Processor partition = 4
units         metal
atom_style    atomic
neighbor      1.0 bin
neigh_modify  every 1 delay 0 check yes

boundary        p p p
atom_modify map array sort 0 0.0
variable	u uloop 8

read_data   initial.lammps
  orthogonal box = (0 0 0) to (10.0025 12.3537 10.615)
  reading atoms ...
  127 atoms
pair_style  nnp3v
pair_coeff  * * lammps-force.nnp Li P O
Reading potential file lammps-force.nnp with DATE: 20201105
min_style   quickmin
minimize    1.0e-6 1.0e-4 1000 10000
  update every 1 steps, delay 0 steps, check yes
Step Temp E_pair E_mol TotEng Press
0            0   -796.68047            0   -796.68047     13401.66
Loop time of 3.74474 on 16 procs for 6 steps with 127 atoms

Minimization stats:
  Stopping criterion = energy tolerance
  Energy initial, next-to-last, final =
  Force two-norm initial, final = 0.292034 0.283352
  Force max component initial, final = 0.0445202 0.0435203
  Final line search alpha, max atom move = 0 0
  Iterations, force evaluations = 6 6

reset_timestep	0

#timestep   0.001
#velocity   all create 1000 87287

dump   1 all atom 1 dump.neb.$u
dump   1 all atom 1 dump.neb.5
fix    2 all neb 1.0 parallel neigh
dump   2 all atom 1 test.dump

thermo          1
neb 0.00000000001 0.0 10000 5000 1 final final.lammps
Step Temp E_pair E_mol TotEng Press
0            0   -794.31304            0   -794.31304    16210.427
Averages over the last 921 of 1841 rows, steps 920 to 1840:
Temp E_pair E_mol TotEng Press
7.33179e-08 -796.116 0 -796.116 13994.4
Loop time of 1012.12 on 16 procs for 1840 steps with 127 atoms

Minimization stats:
  Stopping criterion = energy tolerance
  Energy initial, next-to-last, final =
  Force two-norm initial, final = 13.4645 2.34662e-06
  Force max component initial, final = 8.83785 2.11045e-06
  Final line search alpha, max atom move = 0 0
  Iterations, force evaluations = 1840 1840

Step Temp E_pair E_mol TotEng Press
1840            0   -796.11591            0   -796.11591    13994.359
Loop time of 357.296 on 16 procs for 653 steps with 127 atoms

Minimization stats:
  Stopping criterion = energy tolerance
  Energy initial, next-to-last, final =
  Force two-norm initial, final = 0.243047 9.31321e-05
  Force max component initial, final = 0.234366 6.25812e-05
  Final line search alpha, max atom move = 0 0
  Iterations, force evaluations = 653 653
