LAMMPS (12 Dec 2018)
Processor partition = 2
units         metal
atom_style    atomic
neighbor      1.0 bin
neigh_modify  every 1 delay 0 check yes

boundary        p p p
atom_modify map array sort 0 0.0
variable	u uloop 8

read_data   initial.lammps
  orthogonal box = (0 0 0) to (10.0025 12.3537 10.615)
  reading atoms ...
  127 atoms
pair_style  hybrid/overlay nnp3v nnp3v_vf
pair_coeff  * * nnp3v lammps-force.nnp Li P O
Reading potential file lammps-force.nnp with DATE: 20201105
pair_coeff  * * nnp3v_vf lammps_rot.nnp Li P O
Reading potential file lammps_rot.nnp with DATE: 20211226
min_style   quickmin
minimize    1.0e-6 1.0e-4 1000 10000
  update every 1 steps, delay 0 steps, check yes
Step Temp E_pair E_mol TotEng Press
0            0   -796.79482            0   -796.79482    13324.103
Loop time of 14.7161 on 24 procs for 24 steps with 127 atoms

Minimization stats:
  Stopping criterion = energy tolerance
  Energy initial, next-to-last, final =
  Force two-norm initial, final = 1.98977 0.177561
  Force max component initial, final = 0.330078 0.036579
  Final line search alpha, max atom move = 0 0
  Iterations, force evaluations = 24 24

reset_timestep	0

#timestep   0.001
#velocity   all create 1000 87287

dump   1 all atom 1 dump.neb.$u
dump   1 all atom 1 dump.neb.3
fix    2 all neb 1.0 parallel neigh
dump   2 all atom 1 test.dump

thermo          1
neb 0.00000000001 0.0 10000 5000 1 final final.lammps
Step Temp E_pair E_mol TotEng Press
0            0   -795.79562            0   -795.79562     15349.67
Averages over the last 868 of 1736 rows, steps 868 to 1735:
Temp E_pair E_mol TotEng Press
7.95494e-08 -796.679 0 -796.679 14457.3
Loop time of 1137.49 on 24 procs for 1735 steps with 127 atoms

Minimization stats:
  Stopping criterion = energy tolerance
  Energy initial, next-to-last, final =
  Force two-norm initial, final = 7.09415 2.94621e-06
  Force max component initial, final = 4.45278 2.20673e-06
  Final line search alpha, max atom move = 0 0
  Iterations, force evaluations = 1735 1735

Step Temp E_pair E_mol TotEng Press
1735            0   -796.67867            0   -796.67867     14457.23
Loop time of 580.077 on 24 procs for 891 steps with 127 atoms

Minimization stats:
  Stopping criterion = energy tolerance
  Energy initial, next-to-last, final =
  Force two-norm initial, final = 2.94621e-06 9.6015e-06
  Force max component initial, final = 2.20673e-06 2.71675e-06
  Final line search alpha, max atom move = 0 0
  Iterations, force evaluations = 891 891
